I"æ/Users/Dan/Documents/Flatiron%20Work/gits/labs/rails-labs/rails-dynamic-request-readme-web-0616/app/assets/stylesheets/application.css?type=text/css&pipeline=self&id=49f90646c5980a5b1a27ad6cedd8e93632ef4b78358e723b058d763576d06b94:ET