I"å/Users/Dan/Documents/Flatiron%20Work/gits/labs/rails-labs/rails-dynamic-request-readme-web-0616/app/assets/javascripts/application.js?type=application/javascript&id=436a833c2856d27e5b39ec2362aaee3ac233f462dc7f99ddeea897566028c9d3:ET