I"Ø/Users/Dan/Documents/Flatiron%20Work/gits/labs/rails-labs/rails-dynamic-request-readme-web-0616/app/assets/stylesheets/application.css?type=text/css&id=1a61867661242dca591d67d53a0cc6536a3ab02030c41cf00167d451e5828aec:ET