I"ó/Users/Dan/Documents/Flatiron%20Work/gits/labs/rails-labs/rails-dynamic-request-readme-web-0616/app/assets/javascripts/application.js?type=application/javascript&pipeline=self&id=1773cff11395d7b1f1cd099fb60a4fdcc503bc2c9102944aa75426fe02d06ef0:ET